Version 4
SHEET 1 2396 1276
WIRE 16 112 -64 112
WIRE 208 112 176 112
WIRE 304 112 208 112
WIRE 400 112 304 112
WIRE 496 112 400 112
WIRE 576 112 496 112
WIRE 640 112 576 112
WIRE -64 144 -64 112
WIRE 208 144 208 112
WIRE 304 144 304 112
WIRE 400 144 400 112
WIRE 496 144 496 112
WIRE 576 144 576 112
WIRE 1584 224 1568 224
WIRE 1680 224 1648 224
WIRE -64 256 -64 224
WIRE 208 256 208 208
WIRE 208 256 -64 256
WIRE 304 256 304 224
WIRE 304 256 208 256
WIRE 400 256 400 224
WIRE 400 256 304 256
WIRE 496 256 496 208
WIRE 496 256 400 256
WIRE 576 256 576 224
WIRE 576 256 496 256
WIRE 208 288 208 256
WIRE 1568 304 1568 224
WIRE 1584 304 1568 304
WIRE 1680 304 1680 224
WIRE 1680 304 1664 304
WIRE 1264 336 1104 336
WIRE 512 352 448 352
WIRE 640 352 576 352
WIRE 1904 384 1872 384
WIRE 1104 400 1104 336
WIRE 1152 400 1104 400
WIRE 1264 416 1264 336
WIRE 1264 416 1216 416
WIRE 1440 416 1264 416
WIRE 448 432 448 352
WIRE 448 432 416 432
WIRE 464 432 448 432
WIRE 640 432 640 352
WIRE 640 432 624 432
WIRE 656 432 640 432
WIRE 1008 432 736 432
WIRE 1152 432 1120 432
WIRE 1440 432 1440 416
WIRE 1472 432 1440 432
WIRE 1568 432 1568 304
WIRE 1568 432 1552 432
WIRE 1584 432 1568 432
WIRE 1680 448 1680 304
WIRE 1680 448 1648 448
WIRE 1824 448 1680 448
WIRE 1872 448 1824 448
WIRE 2192 448 2192 416
WIRE 192 464 16 464
WIRE 1584 464 1568 464
WIRE 1120 496 1120 432
WIRE 1120 496 1088 496
WIRE 1296 496 1120 496
WIRE 2048 496 2048 432
WIRE 2080 496 2048 496
WIRE 544 512 544 432
WIRE 560 512 544 512
WIRE 784 512 640 512
WIRE 2192 512 2144 512
WIRE 2224 512 2192 512
WIRE 2080 528 1824 528
WIRE 16 560 16 464
WIRE 48 560 16 560
WIRE 192 576 192 464
WIRE 192 576 112 576
WIRE 240 576 192 576
WIRE 336 576 336 432
WIRE 32 592 -16 592
WIRE 48 592 32 592
WIRE 512 592 448 592
WIRE 640 592 576 592
WIRE 784 608 784 512
WIRE 880 608 784 608
WIRE 1008 624 1008 432
WIRE 1008 624 944 624
WIRE 1120 624 1072 624
WIRE 1216 624 1200 624
WIRE 1296 624 1296 496
WIRE 1680 624 1680 448
WIRE 1680 624 1456 624
WIRE 880 640 832 640
WIRE 240 672 240 576
WIRE 336 672 336 576
WIRE 336 672 240 672
WIRE 448 672 448 592
WIRE 448 672 416 672
WIRE 464 672 448 672
WIRE 640 672 640 592
WIRE 640 672 624 672
WIRE 656 672 640 672
WIRE 736 672 736 432
WIRE 32 688 32 592
WIRE 112 736 112 688
WIRE 112 736 96 736
WIRE 544 752 544 672
WIRE 560 752 544 752
WIRE 784 752 784 608
WIRE 784 752 624 752
WIRE 336 896 336 672
WIRE 464 896 416 896
WIRE 656 896 624 896
WIRE 736 896 736 672
WIRE 544 976 544 896
WIRE 560 976 544 976
WIRE 784 976 784 752
WIRE 784 976 624 976
WIRE 784 1056 704 1056
WIRE 96 1120 96 736
WIRE 224 1120 96 1120
WIRE 704 1120 224 1120
WIRE 832 1120 832 640
WIRE 832 1120 704 1120
WIRE 1088 1120 1088 576
WIRE 1088 1120 832 1120
WIRE 1568 1120 1568 464
WIRE 1568 1120 1088 1120
FLAG 208 288 0
FLAG 640 112 Guitar
IOPIN 640 112 Out
FLAG -80 592 Guitar
IOPIN -80 592 In
FLAG 912 656 0
FLAG 912 592 12V
IOPIN 912 592 In
FLAG 912 176 12V
IOPIN 912 176 In
FLAG 912 256 0
FLAG 1616 480 0
FLAG 1616 416 12V
IOPIN 1616 416 In
FLAG 1904 384 VOUT
FLAG 336 576 S1
FLAG 80 608 0
FLAG 80 544 12V
IOPIN 80 544 In
FLAG 1184 384 12V
IOPIN 1184 384 In
FLAG 1184 448 0
FLAG 2112 544 0
FLAG 2112 480 12V
IOPIN 2112 480 In
FLAG 2048 352 0
FLAG 2192 256 0
FLAG 1008 432 S2
FLAG 224 1040 0
FLAG 1824 608 0
SYMBOL ind 0 128 R270
WINDOW 0 32 56 VTop 2
WINDOW 3 5 56 VBottom 2
SYMATTR InstName L1
SYMATTR Value 2.2
SYMBOL res 192 96 R90
WINDOW 0 0 56 VBottom 2
WINDOW 3 32 56 VTop 2
SYMATTR InstName R1
SYMATTR Value 5.8k
SYMBOL cap 192 144 R0
SYMATTR InstName C1
SYMATTR Value 120p
SYMBOL res 288 128 R0
SYMATTR InstName R2
SYMATTR Value 250k
SYMBOL res 384 128 R0
SYMATTR InstName R3
SYMATTR Value 250k
SYMBOL cap 480 144 R0
SYMATTR InstName C2
SYMATTR Value 500p
SYMBOL res 560 128 R0
SYMATTR InstName R4
SYMATTR Value 1Meg
SYMBOL voltage -64 128 R0
WINDOW 123 24 124 Left 2
WINDOW 39 0 0 Left 0
WINDOW 3 24 44 Left 2
SYMATTR Value2 AC 0.4
SYMATTR Value SINE(0 -0.4 200)
SYMATTR InstName V1
SYMBOL res 432 656 R90
WINDOW 0 0 56 VBottom 2
WINDOW 3 32 56 VTop 2
SYMATTR InstName R6
SYMATTR Value 3.3k
SYMBOL cap 576 576 R90
WINDOW 0 0 32 VBottom 2
WINDOW 3 -27 84 VTop 2
SYMATTR InstName C5
SYMATTR Value 4.7n
SYMBOL cap 624 736 R90
WINDOW 0 0 32 VBottom 2
WINDOW 3 32 32 VTop 2
SYMATTR InstName C6
SYMATTR Value 22n
SYMBOL res 752 656 R90
WINDOW 0 0 56 VBottom 2
WINDOW 3 32 56 VTop 2
SYMATTR InstName R9
SYMATTR Value 3.3k
SYMBOL res 432 416 R90
WINDOW 0 0 56 VBottom 2
WINDOW 3 32 56 VTop 2
SYMATTR InstName R10
SYMATTR Value 10k
SYMBOL cap 576 336 R90
WINDOW 0 0 32 VBottom 2
WINDOW 3 -18 73 VTop 2
SYMATTR InstName C7
SYMATTR Value 47n
SYMBOL res 752 416 R90
WINDOW 0 0 56 VBottom 2
WINDOW 3 32 56 VTop 2
SYMATTR InstName R13
SYMATTR Value 10k
SYMBOL cap 624 960 R90
WINDOW 0 0 32 VBottom 2
WINDOW 3 32 32 VTop 2
SYMATTR InstName C10
SYMATTR Value 4.7n
SYMBOL res 752 880 R90
WINDOW 0 0 56 VBottom 2
WINDOW 3 32 56 VTop 2
SYMATTR InstName R16
SYMATTR Value 1.8k
SYMBOL res 432 880 R90
WINDOW 0 0 56 VBottom 2
WINDOW 3 32 56 VTop 2
SYMATTR InstName R17
SYMATTR Value 1.8k
SYMBOL res 656 496 R90
WINDOW 0 0 56 VBottom 2
WINDOW 3 32 56 VTop 2
SYMATTR InstName R18
SYMATTR Value 10k
SYMBOL res 768 960 R0
SYMATTR InstName R19
SYMATTR Value 270
SYMBOL cap 688 1056 R0
WINDOW 3 40 34 Left 2
SYMATTR Value 1.2n
SYMATTR InstName C8
SYMBOL voltage 912 160 R0
WINDOW 123 0 0 Left 0
WINDOW 39 0 0 Left 0
SYMATTR InstName V2
SYMATTR Value 3.8
SYMBOL res 640 656 R90
WINDOW 0 0 56 VBottom 2
WINDOW 3 32 56 VTop 2
SYMATTR InstName R7
SYMATTR Value {1m+MID*100k}
SYMBOL res 560 656 R90
WINDOW 0 0 56 VBottom 2
WINDOW 3 -52 54 VTop 2
SYMATTR InstName R8
SYMATTR Value {1m+(1-MID)*100k}
SYMBOL res 640 416 R90
WINDOW 0 0 56 VBottom 2
WINDOW 3 32 56 VTop 2
SYMATTR InstName R11
SYMATTR Value {1m+BASS*100k}
SYMBOL res 560 416 R90
WINDOW 0 0 56 VBottom 2
WINDOW 3 -56 49 VTop 2
SYMATTR InstName R12
SYMATTR Value {1m+(1-BASS)*100k}
SYMBOL res 640 880 R90
WINDOW 0 0 56 VBottom 2
WINDOW 3 32 56 VTop 2
SYMATTR InstName R14
SYMATTR Value {1m+TREBLE*470k}
SYMBOL res 560 880 R90
WINDOW 0 0 56 VBottom 2
WINDOW 3 -56 67 VTop 2
SYMATTR InstName R15
SYMATTR Value {1m+(1-TREBLE)*470k}
SYMBOL res 1312 608 R90
WINDOW 0 0 56 VBottom 2
WINDOW 3 33 25 VTop 2
SYMATTR InstName R24
SYMATTR Value {1+(1-VOL)*10k}
SYMBOL res 1392 608 R90
WINDOW 0 0 56 VBottom 2
WINDOW 3 -56 50 VTop 2
SYMATTR InstName R25
SYMATTR Value {1+VOL*10k}
SYMBOL res 1456 448 R270
WINDOW 0 32 56 VTop 2
WINDOW 3 0 56 VBottom 2
SYMATTR InstName R27
SYMATTR Value 500
SYMBOL res 1680 288 R90
WINDOW 0 0 56 VBottom 2
WINDOW 3 32 56 VTop 2
SYMATTR InstName R28
SYMATTR Value 5k
SYMBOL cap 1648 208 R90
WINDOW 0 0 32 VBottom 2
WINDOW 3 32 32 VTop 2
SYMATTR InstName C16
SYMATTR Value 100p
SYMBOL res 1216 608 R90
WINDOW 0 0 56 VBottom 2
WINDOW 3 32 56 VTop 2
SYMATTR InstName R26
SYMATTR Value 1
SYMBOL res 1472 608 R90
WINDOW 0 0 56 VBottom 2
WINDOW 3 32 56 VTop 2
SYMATTR InstName R21
SYMATTR Value 1
SYMBOL polcap -16 576 R90
WINDOW 0 0 32 VBottom 2
WINDOW 3 32 32 VTop 2
SYMATTR InstName C12
SYMATTR Value 22µ
SYMBOL res 16 704 R270
WINDOW 0 32 56 VTop 2
WINDOW 3 0 56 VBottom 2
SYMATTR InstName R33
SYMATTR Value 22k
SYMBOL res 1072 480 R0
SYMATTR InstName R5
SYMATTR Value 22k
SYMBOL voltage 2048 448 R180
WINDOW 0 24 96 Left 2
WINDOW 3 24 16 Left 2
WINDOW 123 0 0 Left 0
WINDOW 39 0 0 Left 0
SYMATTR InstName V4
SYMATTR Value 0.91
SYMBOL res 2176 320 R0
SYMATTR InstName R20
SYMATTR Value 160
SYMBOL AutoGenerated\\TL331 2112 512 R0
SYMATTR InstName U3
SYMBOL voltage 2192 352 R180
WINDOW 0 24 96 Left 2
WINDOW 3 24 16 Left 2
WINDOW 123 0 0 Left 0
WINDOW 39 0 0 Left 0
SYMATTR InstName V5
SYMATTR Value 3.8
SYMBOL voltage 224 1136 R180
WINDOW 0 24 96 Left 2
WINDOW 3 24 16 Left 2
WINDOW 123 0 0 Left 0
WINDOW 39 0 0 Left 0
SYMATTR InstName V3
SYMATTR Value 1.53
SYMBOL AutoGenerated\\OPA1622 80 576 R0
SYMATTR InstName U1
SYMBOL AutoGenerated\\OPA1622 912 624 R0
SYMATTR InstName U2
SYMBOL AutoGenerated\\OPA1622 1184 416 R0
SYMATTR InstName U4
SYMBOL AutoGenerated\\OPA1622 1616 448 R0
SYMATTR InstName U5
SYMBOL res 1808 432 R0
SYMATTR InstName R22
SYMATTR Value 22k
SYMBOL res 1808 512 R0
SYMATTR InstName R23
SYMATTR Value 22k
SYMBOL LED 2176 448 R0
SYMATTR InstName D1
SYMATTR Value PT-121-B
SYMBOL polcap 1008 640 R270
WINDOW 0 32 32 VTop 2
WINDOW 3 0 32 VBottom 2
SYMATTR InstName C3
SYMATTR Value 22µ
SYMBOL polcap 1888 448 R180
WINDOW 0 24 57 Left 2
WINDOW 3 24 8 Left 2
SYMATTR InstName C4
SYMATTR Value 15µ
TEXT 368 48 Left 2 !;ac oct 100 1 20000
TEXT 936 864 Left 2 !.param BASS=0.5 MID=0.5 TREBLE=0.5 VOL=0.92 TEST=1
TEXT 944 912 Left 2 !;.step param TEST list 8u 10u 15u
TEXT 216 88 Left 2 ;Guitar Pickup Simulation
TEXT 64 384 Left 2 ;Input Hi-Z Buffer
TEXT 808 336 Left 2 ;Tone Control, EQ
TEXT 1104 224 Left 2 ;Baxandall Active Volume Control
TEXT 368 24 Left 2 !.tran 5m
TEXT 376 0 Left 2 !;noise V(VOUT) V1 oct 100 1 20000
TEXT 944 944 Left 2 !;.step param BASS 0 1 0.25
TEXT 1776 320 Left 2 ;LED clipping comparator
TEXT 1928 512 Left 2 ;VCC-1.5 max
RECTANGLE Normal 1712 656 1072 192 2
RECTANGLE Normal 1024 1104 304 320 2
RECTANGLE Normal 256 752 0 352 2
RECTANGLE Normal 736 288 -112 64 2
RECTANGLE Normal 2272 640 1776 336 2
